*SPEF "IEEE 1481-1998"
*DESIGN "gpu"
*DATE "Mon Jun 22 12:58:39 2026"
*VENDOR "Cadence Design Systems, Inc."
*PROGRAM "Innovus"
*VERSION "21.15-s110_1"
*DESIGN_FLOW "PIN_CAP NONE" "NAME_SCOPE LOCAL"
*DIVIDER /
*DELIMITER :
*BUS_DELIMITER []
*T_UNIT 1 NS
*C_UNIT 1 PF
*R_UNIT 1 OHM
*L_UNIT 1 HENRY

// MMMC spef file for corner 'rccorner'

*NAME_MAP

*1 FE_OFN4819_dispatch_instance_n_4808
*2 FE_OFN4818_n
*3 CTS_22
*4 CTS_19
*5 CTS_18
*6 CTS_17
*7 CTS_16
*8 CTS_15
*9 CTS_14
*10 CTS_13
*11 CTS_12
*12 CTS_11
*13 CTS_21
*14 CTS_20
*15 CTS_8
*16 CTS_7
*17 CTS_6
*18 CTS_5
*19 CTS_4
*20 CTS_3
*21 CTS_2
*22 CTS_1
*23 CTS_10
*24 CTS_9
*25 FE_OFN216_dispatch_instance_n_4848
*26 FE_OFN215_dispatch_instance_n_4817
*27 FE_OFN212_data_memory_controller_n_71414
*28 FE_OFN211_data_memory_controller_n_71160
*29 FE_OFN210_data_memory_controller_n_70937
*30 clk
*31 reset
*32 start
*33 done
*34 device_control_write_enable
*35 device_control_data[7]
*36 device_control_data[6]
*37 device_control_data[5]
*38 device_control_data[4]
*39 device_control_data[3]
*40 device_control_data[2]
*41 device_control_data[1]
*42 device_control_data[0]
*43 program_mem_read_valid[0]
*44 program_mem_read_address\[0\][7]
*45 program_mem_read_address\[0\][6]
*46 program_mem_read_address\[0\][5]
*47 program_mem_read_address\[0\][4]
*48 program_mem_read_address\[0\][3]
*49 program_mem_read_address\[0\][2]
*50 program_mem_read_address\[0\][1]
*51 program_mem_read_address\[0\][0]
*52 program_mem_read_ready[0]
*53 program_mem_read_data\[0\][15]
*54 program_mem_read_data\[0\][14]
*55 program_mem_read_data\[0\][13]
*56 program_mem_read_data\[0\][12]
*57 program_mem_read_data\[0\][11]
*58 program_mem_read_data\[0\][10]
*59 program_mem_read_data\[0\][9]
*60 program_mem_read_data\[0\][8]
*61 program_mem_read_data\[0\][7]
*62 program_mem_read_data\[0\][6]
*63 program_mem_read_data\[0\][5]
*64 program_mem_read_data\[0\][4]
*65 program_mem_read_data\[0\][3]
*66 program_mem_read_data\[0\][2]
*67 program_mem_read_data\[0\][1]
*68 program_mem_read_data\[0\][0]
*69 data_mem_read_valid[3]
*70 data_mem_read_valid[2]
*71 data_mem_read_valid[1]
*72 data_mem_read_valid[0]
*73 data_mem_read_address\[0\][7]
*74 data_mem_read_address\[0\][6]
*75 data_mem_read_address\[0\][5]
*76 data_mem_read_address\[0\][4]
*77 data_mem_read_address\[0\][3]
*78 data_mem_read_address\[0\][2]
*79 data_mem_read_address\[0\][1]
*80 data_mem_read_address\[0\][0]
*81 data_mem_read_address\[1\][7]
*82 data_mem_read_address\[1\][6]
*83 data_mem_read_address\[1\][5]
*84 data_mem_read_address\[1\][4]
*85 data_mem_read_address\[1\][3]
*86 data_mem_read_address\[1\][2]
*87 data_mem_read_address\[1\][1]
*88 data_mem_read_address\[1\][0]
*89 data_mem_read_address\[2\][7]
*90 data_mem_read_address\[2\][6]
*91 data_mem_read_address\[2\][5]
*92 data_mem_read_address\[2\][4]
*93 data_mem_read_address\[2\][3]
*94 data_mem_read_address\[2\][2]
*95 data_mem_read_address\[2\][1]
*96 data_mem_read_address\[2\][0]
*97 data_mem_read_address\[3\][7]
*98 data_mem_read_address\[3\][6]
*99 data_mem_read_address\[3\][5]
*100 data_mem_read_address\[3\][4]
*101 data_mem_read_address\[3\][3]
*102 data_mem_read_address\[3\][2]
*103 data_mem_read_address\[3\][1]
*104 data_mem_read_address\[3\][0]
*105 data_mem_read_ready[3]
*106 data_mem_read_ready[2]
*107 data_mem_read_ready[1]
*108 data_mem_read_ready[0]
*109 data_mem_read_data\[0\][7]
*110 data_mem_read_data\[0\][6]
*111 data_mem_read_data\[0\][5]
*112 data_mem_read_data\[0\][4]
*113 data_mem_read_data\[0\][3]
*114 data_mem_read_data\[0\][2]
*115 data_mem_read_data\[0\][1]
*116 data_mem_read_data\[0\][0]
*117 data_mem_read_data\[1\][7]
*118 data_mem_read_data\[1\][6]
*119 data_mem_read_data\[1\][5]
*120 data_mem_read_data\[1\][4]
*121 data_mem_read_data\[1\][3]
*122 data_mem_read_data\[1\][2]
*123 data_mem_read_data\[1\][1]
*124 data_mem_read_data\[1\][0]
*125 data_mem_read_data\[2\][7]
*126 data_mem_read_data\[2\][6]
*127 data_mem_read_data\[2\][5]
*128 data_mem_read_data\[2\][4]
*129 data_mem_read_data\[2\][3]
*130 data_mem_read_data\[2\][2]
*131 data_mem_read_data\[2\][1]
*132 data_mem_read_data\[2\][0]
*133 data_mem_read_data\[3\][7]
*134 data_mem_read_data\[3\][6]
*135 data_mem_read_data\[3\][5]
*136 data_mem_read_data\[3\][4]
*137 data_mem_read_data\[3\][3]
*138 data_mem_read_data\[3\][2]
*139 data_mem_read_data\[3\][1]
*140 data_mem_read_data\[3\][0]
*141 data_mem_write_valid[3]
*142 data_mem_write_valid[2]
*143 data_mem_write_valid[1]
*144 data_mem_write_valid[0]
*145 data_mem_write_address\[0\][7]
*146 data_mem_write_address\[0\][6]
*147 data_mem_write_address\[0\][5]
*148 data_mem_write_address\[0\][4]
*149 data_mem_write_address\[0\][3]
*150 data_mem_write_address\[0\][2]
*151 data_mem_write_address\[0\][1]
*152 data_mem_write_address\[0\][0]
*153 data_mem_write_address\[1\][7]
*154 data_mem_write_address\[1\][6]
*155 data_mem_write_address\[1\][5]
*156 data_mem_write_address\[1\][4]
*157 data_mem_write_address\[1\][3]
*158 data_mem_write_address\[1\][2]
*159 data_mem_write_address\[1\][1]
*160 data_mem_write_address\[1\][0]
*161 data_mem_write_address\[2\][7]
*162 data_mem_write_address\[2\][6]
*163 data_mem_write_address\[2\][5]
*164 data_mem_write_address\[2\][4]
*165 data_mem_write_address\[2\][3]
*166 data_mem_write_address\[2\][2]
*167 data_mem_write_address\[2\][1]
*168 data_mem_write_address\[2\][0]
*169 data_mem_write_address\[3\][7]
*170 data_mem_write_address\[3\][6]
*171 data_mem_write_address\[3\][5]
*172 data_mem_write_address\[3\][4]
*173 data_mem_write_address\[3\][3]
*174 data_mem_write_address\[3\][2]
*175 data_mem_write_address\[3\][1]
*176 data_mem_write_address\[3\][0]
*177 data_mem_write_data\[0\][7]
*178 data_mem_write_data\[0\][6]
*179 data_mem_write_data\[0\][5]
*180 data_mem_write_data\[0\][4]
*181 data_mem_write_data\[0\][3]
*182 data_mem_write_data\[0\][2]
*183 data_mem_write_data\[0\][1]
*184 data_mem_write_data\[0\][0]
*185 data_mem_write_data\[1\][7]
*186 data_mem_write_data\[1\][6]
*187 data_mem_write_data\[1\][5]
*188 data_mem_write_data\[1\][4]
*189 data_mem_write_data\[1\][3]
*190 data_mem_write_data\[1\][2]
*191 data_mem_write_data\[1\][1]
*192 data_mem_write_data\[1\][0]
*193 data_mem_write_data\[2\][7]
*194 data_mem_write_data\[2\][6]
*195 data_mem_write_data\[2\][5]
*196 data_mem_write_data\[2\][4]
*197 data_mem_write_data\[2\][3]
*198 data_mem_write_data\[2\][2]
*199 data_mem_write_data\[2\][1]
*200 data_mem_write_data\[2\][0]
*201 data_mem_write_data\[3\][7]
*202 data_mem_write_data\[3\][6]
*203 data_mem_write_data\[3\][5]
*204 data_mem_write_data\[3\][4]
*205 data_mem_write_data\[3\][3]
*206 data_mem_write_data\[3\][2]
*207 data_mem_write_data\[3\][1]
*208 data_mem_write_data\[3\][0]
*209 data_mem_write_ready[3]
*210 data_mem_write_ready[2]
*211 data_mem_write_ready[1]
*212 data_mem_write_ready[0]
*213 cores\[0\]\.core_instance_decoded_alu_arithmetic_mux[1]
*214 cores\[0\]\.core_instance_decoded_alu_arithmetic_mux[0]
*215 cores\[0\]\.core_instance_instruction[15]
*216 cores\[0\]\.core_instance_instruction[14]
*217 cores\[0\]\.core_instance_instruction[13]
*218 cores\[0\]\.core_instance_instruction[12]
*219 cores\[0\]\.core_instance_instruction[11]
*220 cores\[0\]\.core_instance_instruction[10]
*221 cores\[0\]\.core_instance_instruction[9]
*222 cores\[0\]\.core_instance_instruction[8]
*223 cores\[0\]\.core_instance_instruction[7]
*224 cores\[0\]\.core_instance_instruction[6]
*225 cores\[0\]\.core_instance_instruction[5]
*226 cores\[0\]\.core_instance_instruction[4]
*227 cores\[0\]\.core_instance_instruction[3]
*228 cores\[0\]\.core_instance_instruction[2]
*229 cores\[0\]\.core_instance_instruction[1]
*230 cores\[0\]\.core_instance_instruction[0]
*231 cores\[0\]\.core_instance_decoded_immediate[7]
*232 cores\[0\]\.core_instance_decoded_immediate[6]
*233 cores\[0\]\.core_instance_decoded_immediate[5]
*234 cores\[0\]\.core_instance_decoded_immediate[4]
*235 cores\[0\]\.core_instance_decoded_immediate[3]
*236 cores\[0\]\.core_instance_decoded_immediate[2]
*237 cores\[0\]\.core_instance_decoded_immediate[1]
*238 cores\[0\]\.core_instance_decoded_immediate[0]
*239 cores\[0\]\.core_instance_decoded_rd_address[3]
*240 cores\[0\]\.core_instance_decoded_rd_address[2]
*241 cores\[0\]\.core_instance_decoded_rd_address[1]
*242 cores\[0\]\.core_instance_decoded_rd_address[0]
*243 cores\[0\]\.core_instance_decoded_reg_input_mux[1]
*244 fetcher_read_data\[0\][15]
*245 fetcher_read_data\[0\][14]
*246 fetcher_read_data\[0\][13]
*247 fetcher_read_data\[0\][12]
*248 fetcher_read_data\[0\][11]
*249 fetcher_read_data\[0\][10]
*250 fetcher_read_data\[0\][9]
*251 fetcher_read_data\[0\][8]
*252 fetcher_read_data\[0\][7]
*253 fetcher_read_data\[0\][6]
*254 fetcher_read_data\[0\][5]
*255 fetcher_read_data\[0\][4]
*256 fetcher_read_data\[0\][3]
*257 fetcher_read_data\[0\][2]
*258 fetcher_read_data\[0\][1]
*259 fetcher_read_data\[0\][0]
*260 cores\[0\]\.core_instance_current_pc[7]
*261 cores\[0\]\.core_instance_current_pc[6]
*262 cores\[0\]\.core_instance_current_pc[5]
*263 cores\[0\]\.core_instance_current_pc[4]
*264 cores\[0\]\.core_instance_current_pc[3]
*265 cores\[0\]\.core_instance_current_pc[2]
*266 cores\[0\]\.core_instance_current_pc[1]
*267 cores\[0\]\.core_instance_current_pc[0]
*268 fetcher_read_address\[0\][7]
*269 fetcher_read_address\[0\][6]
*270 fetcher_read_address\[0\][5]
*271 fetcher_read_address\[0\][4]
*272 fetcher_read_address\[0\][3]
*273 fetcher_read_address\[0\][2]
*274 fetcher_read_address\[0\][1]
*275 fetcher_read_address\[0\][0]
*276 cores\[0\]\.core_instance_next_pc\[0\][7]
*277 cores\[0\]\.core_instance_next_pc\[0\][6]
*278 cores\[0\]\.core_instance_next_pc\[0\][5]
*279 cores\[0\]\.core_instance_next_pc\[0\][4]
*280 cores\[0\]\.core_instance_next_pc\[0\][3]
*281 cores\[0\]\.core_instance_next_pc\[0\][2]
*282 cores\[0\]\.core_instance_next_pc\[0\][1]
*283 cores\[0\]\.core_instance_next_pc\[0\][0]
*284 cores\[0\]\.core_instance_alu_out\[0\][7]
*285 cores\[0\]\.core_instance_alu_out\[0\][6]
*286 cores\[0\]\.core_instance_alu_out\[0\][5]
*287 cores\[0\]\.core_instance_alu_out\[0\][4]
*288 cores\[0\]\.core_instance_alu_out\[0\][3]
*289 cores\[0\]\.core_instance_alu_out\[0\][2]
*290 cores\[0\]\.core_instance_alu_out\[0\][1]
*291 cores\[0\]\.core_instance_alu_out\[0\][0]
*292 lsu_read_data\[0\][7]
*293 lsu_read_data\[0\][6]
*294 lsu_read_data\[0\][5]
*295 lsu_read_data\[0\][4]
*296 lsu_read_data\[0\][3]
*297 lsu_read_data\[0\][2]
*298 lsu_read_data\[0\][1]
*299 lsu_read_data\[0\][0]
*300 cores\[0\]\.core_instance_lsu_out\[0\][7]
*301 cores\[0\]\.core_instance_lsu_out\[0\][6]
*302 cores\[0\]\.core_instance_lsu_out\[0\][5]
*303 cores\[0\]\.core_instance_lsu_out\[0\][4]
*304 cores\[0\]\.core_instance_lsu_out\[0\][3]
*305 cores\[0\]\.core_instance_lsu_out\[0\][2]
*306 cores\[0\]\.core_instance_lsu_out\[0\][1]
*307 cores\[0\]\.core_instance_lsu_out\[0\][0]
*308 cores\[0\]\.core_instance_lsu_state\[0\][1]
*309 cores\[0\]\.core_instance_lsu_state\[0\][0]
*310 cores\[0\]\.core_instance_rt\[0\][7]
*311 cores\[0\]\.core_instance_rt\[0\][6]
*312 cores\[0\]\.core_instance_rt\[0\][5]
*313 cores\[0\]\.core_instance_rt\[0\][4]
*314 cores\[0\]\.core_instance_rt\[0\][3]
*315 cores\[0\]\.core_instance_rt\[0\][2]
*316 cores\[0\]\.core_instance_rt\[0\][1]
*317 cores\[0\]\.core_instance_rt\[0\][0]
*318 cores\[0\]\.core_lsu_write_data\[0\][7]
*319 cores\[0\]\.core_lsu_write_data\[0\][6]
*320 cores\[0\]\.core_lsu_write_data\[0\][5]
*321 cores\[0\]\.core_lsu_write_data\[0\][4]
*322 cores\[0\]\.core_lsu_write_data\[0\][3]
*323 cores\[0\]\.core_lsu_write_data\[0\][2]
*324 cores\[0\]\.core_lsu_write_data\[0\][1]
*325 cores\[0\]\.core_lsu_write_data\[0\][0]
*326 cores\[0\]\.core_instance_threads\[0\]\.pc_instance_nzp[2]
*327 cores\[0\]\.core_instance_threads\[0\]\.pc_instance_nzp[1]
*328 cores\[0\]\.core_instance_threads\[0\]\.pc_instance_nzp[0]
*329 cores\[0\]\.core_instance_alu_out\[1\][7]
*330 cores\[0\]\.core_instance_alu_out\[1\][6]
*331 cores\[0\]\.core_instance_alu_out\[1\][5]
*332 cores\[0\]\.core_instance_alu_out\[1\][4]
*333 cores\[0\]\.core_instance_alu_out\[1\][3]
*334 cores\[0\]\.core_instance_alu_out\[1\][2]
*335 cores\[0\]\.core_instance_alu_out\[1\][1]
*336 cores\[0\]\.core_instance_alu_out\[1\][0]
*337 lsu_read_data\[1\][7]
*338 lsu_read_data\[1\][6]
*339 lsu_read_data\[1\][5]
*340 lsu_read_data\[1\][4]
*341 lsu_read_data\[1\][3]
*342 lsu_read_data\[1\][2]
*343 lsu_read_data\[1\][1]
*344 lsu_read_data\[1\][0]
*345 cores\[0\]\.core_instance_lsu_out\[1\][7]
*346 cores\[0\]\.core_instance_lsu_out\[1\][6]
*347 cores\[0\]\.core_instance_lsu_out\[1\][5]
*348 cores\[0\]\.core_instance_lsu_out\[1\][4]
*349 cores\[0\]\.core_instance_lsu_out\[1\][3]
*350 cores\[0\]\.core_instance_lsu_out\[1\][2]
*351 cores\[0\]\.core_instance_lsu_out\[1\][1]
*352 cores\[0\]\.core_instance_lsu_out\[1\][0]
*353 cores\[0\]\.core_instance_rt\[1\][7]
*354 cores\[0\]\.core_instance_rt\[1\][6]
*355 cores\[0\]\.core_instance_rt\[1\][5]
*356 cores\[0\]\.core_instance_rt\[1\][4]
*357 cores\[0\]\.core_instance_rt\[1\][3]
*358 cores\[0\]\.core_instance_rt\[1\][2]
*359 cores\[0\]\.core_instance_rt\[1\][1]
*360 cores\[0\]\.core_instance_rt\[1\][0]
*361 cores\[0\]\.core_lsu_write_data\[1\][7]
*362 cores\[0\]\.core_lsu_write_data\[1\][6]
*363 cores\[0\]\.core_lsu_write_data\[1\][5]
*364 cores\[0\]\.core_lsu_write_data\[1\][4]
*365 cores\[0\]\.core_lsu_write_data\[1\][3]
*366 cores\[0\]\.core_lsu_write_data\[1\][2]
*367 cores\[0\]\.core_lsu_write_data\[1\][1]
*368 cores\[0\]\.core_lsu_write_data\[1\][0]
*369 cores\[0\]\.core_instance_alu_out\[2\][7]
*370 cores\[0\]\.core_instance_alu_out\[2\][6]
*371 cores\[0\]\.core_instance_alu_out\[2\][5]
*372 cores\[0\]\.core_instance_alu_out\[2\][4]
*373 cores\[0\]\.core_instance_alu_out\[2\][3]
*374 cores\[0\]\.core_instance_alu_out\[2\][2]
*375 cores\[0\]\.core_instance_alu_out\[2\][1]
*376 cores\[0\]\.core_instance_alu_out\[2\][0]
*377 lsu_read_data\[2\][7]
*378 lsu_read_data\[2\][6]
*379 lsu_read_data\[2\][5]
*380 lsu_read_data\[2\][4]
*381 lsu_read_data\[2\][3]
*382 lsu_read_data\[2\][2]
*383 lsu_read_data\[2\][1]
*384 lsu_read_data\[2\][0]
*385 cores\[0\]\.core_instance_lsu_out\[2\][7]
*386 cores\[0\]\.core_instance_lsu_out\[2\][6]
*387 cores\[0\]\.core_instance_lsu_out\[2\][5]
*388 cores\[0\]\.core_instance_lsu_out\[2\][4]
*389 cores\[0\]\.core_instance_lsu_out\[2\][3]
*390 cores\[0\]\.core_instance_lsu_out\[2\][2]
*391 cores\[0\]\.core_instance_lsu_out\[2\][1]
*392 cores\[0\]\.core_instance_lsu_out\[2\][0]
*393 cores\[0\]\.core_instance_rt\[2\][7]
*394 cores\[0\]\.core_instance_rt\[2\][6]
*395 cores\[0\]\.core_instance_rt\[2\][5]
*396 cores\[0\]\.core_instance_rt\[2\][4]
*397 cores\[0\]\.core_instance_rt\[2\][3]
*398 cores\[0\]\.core_instance_rt\[2\][2]
*399 cores\[0\]\.core_instance_rt\[2\][1]
*400 cores\[0\]\.core_instance_rt\[2\][0]
*401 cores\[0\]\.core_lsu_write_data\[2\][7]
*402 cores\[0\]\.core_lsu_write_data\[2\][6]
*403 cores\[0\]\.core_lsu_write_data\[2\][5]
*404 cores\[0\]\.core_lsu_write_data\[2\][4]
*405 cores\[0\]\.core_lsu_write_data\[2\][3]
*406 cores\[0\]\.core_lsu_write_data\[2\][2]
*407 cores\[0\]\.core_lsu_write_data\[2\][1]
*408 cores\[0\]\.core_lsu_write_data\[2\][0]
*409 cores\[0\]\.core_instance_alu_out\[3\][7]
*410 cores\[0\]\.core_instance_alu_out\[3\][6]
*411 cores\[0\]\.core_instance_alu_out\[3\][5]
*412 cores\[0\]\.core_instance_alu_out\[3\][4]
*413 cores\[0\]\.core_instance_alu_out\[3\][3]
*414 cores\[0\]\.core_instance_alu_out\[3\][2]
*415 cores\[0\]\.core_instance_alu_out\[3\][1]
*416 cores\[0\]\.core_instance_alu_out\[3\][0]
*417 lsu_read_data\[3\][7]
*418 lsu_read_data\[3\][6]
*419 lsu_read_data\[3\][5]
*420 lsu_read_data\[3\][4]
*421 lsu_read_data\[3\][3]
*422 lsu_read_data\[3\][2]
*423 lsu_read_data\[3\][1]
*424 lsu_read_data\[3\][0]
*425 cores\[0\]\.core_instance_lsu_out\[3\][7]
*426 cores\[0\]\.core_instance_lsu_out\[3\][6]
*427 cores\[0\]\.core_instance_lsu_out\[3\][5]
*428 cores\[0\]\.core_instance_lsu_out\[3\][4]
*429 cores\[0\]\.core_instance_lsu_out\[3\][3]
*430 cores\[0\]\.core_instance_lsu_out\[3\][2]
*431 cores\[0\]\.core_instance_lsu_out\[3\][1]
*432 cores\[0\]\.core_instance_lsu_out\[3\][0]
*433 cores\[0\]\.core_instance_rt\[3\][7]
*434 cores\[0\]\.core_instance_rt\[3\][6]
*435 cores\[0\]\.core_instance_rt\[3\][5]
*436 cores\[0\]\.core_instance_rt\[3\][4]
*437 cores\[0\]\.core_instance_rt\[3\][3]
*438 cores\[0\]\.core_instance_rt\[3\][2]
*439 cores\[0\]\.core_instance_rt\[3\][1]
*440 cores\[0\]\.core_instance_rt\[3\][0]
*441 cores\[0\]\.core_lsu_write_data\[3\][7]
*442 cores\[0\]\.core_lsu_write_data\[3\][6]
*443 cores\[0\]\.core_lsu_write_data\[3\][5]
*444 cores\[0\]\.core_lsu_write_data\[3\][4]
*445 cores\[0\]\.core_lsu_write_data\[3\][3]
*446 cores\[0\]\.core_lsu_write_data\[3\][2]
*447 cores\[0\]\.core_lsu_write_data\[3\][1]
*448 cores\[0\]\.core_lsu_write_data\[3\][0]
*449 cores\[1\]\.core_instance_decoded_alu_arithmetic_mux[1]
*450 cores\[1\]\.core_instance_decoded_alu_arithmetic_mux[0]
*451 cores\[1\]\.core_instance_instruction[15]
*452 cores\[1\]\.core_instance_instruction[14]
*453 cores\[1\]\.core_instance_instruction[13]
*454 cores\[1\]\.core_instance_instruction[12]
*455 cores\[1\]\.core_instance_instruction[11]
*456 cores\[1\]\.core_instance_instruction[10]
*457 cores\[1\]\.core_instance_instruction[9]
*458 cores\[1\]\.core_instance_instruction[8]
*459 cores\[1\]\.core_instance_instruction[7]
*460 cores\[1\]\.core_instance_instruction[6]
*461 cores\[1\]\.core_instance_instruction[5]
*462 cores\[1\]\.core_instance_instruction[4]
*463 cores\[1\]\.core_instance_instruction[3]
*464 cores\[1\]\.core_instance_instruction[2]
*465 cores\[1\]\.core_instance_instruction[1]
*466 cores\[1\]\.core_instance_instruction[0]
*467 cores\[1\]\.core_instance_decoded_immediate[7]
*468 cores\[1\]\.core_instance_decoded_immediate[6]
*469 cores\[1\]\.core_instance_decoded_immediate[5]
*470 cores\[1\]\.core_instance_decoded_immediate[4]
*471 cores\[1\]\.core_instance_decoded_immediate[3]
*472 cores\[1\]\.core_instance_decoded_immediate[2]
*473 cores\[1\]\.core_instance_decoded_immediate[1]
*474 cores\[1\]\.core_instance_decoded_immediate[0]
*475 cores\[1\]\.core_instance_decoded_rd_address[3]
*476 cores\[1\]\.core_instance_decoded_rd_address[2]
*477 cores\[1\]\.core_instance_decoded_rd_address[1]
*478 cores\[1\]\.core_instance_decoded_rd_address[0]
*479 cores\[1\]\.core_instance_decoded_reg_input_mux[1]
*480 fetcher_read_data\[1\][15]
*481 fetcher_read_data\[1\][14]
*482 fetcher_read_data\[1\][13]
*483 fetcher_read_data\[1\][12]
*484 fetcher_read_data\[1\][11]
*485 fetcher_read_data\[1\][10]
*486 fetcher_read_data\[1\][9]
*487 fetcher_read_data\[1\][8]
*488 fetcher_read_data\[1\][7]
*489 fetcher_read_data\[1\][6]
*490 fetcher_read_data\[1\][5]
*491 fetcher_read_data\[1\][4]
*492 fetcher_read_data\[1\][3]
*493 fetcher_read_data\[1\][2]
*494 fetcher_read_data\[1\][1]
*495 fetcher_read_data\[1\][0]
*496 cores\[1\]\.core_instance_current_pc[7]
*497 cores\[1\]\.core_instance_current_pc[6]
*498 cores\[1\]\.core_instance_current_pc[5]
*499 cores\[1\]\.core_instance_current_pc[4]
*500 cores\[1\]\.core_instance_current_pc[3]
*501 cores\[1\]\.core_instance_current_pc[2]
*502 cores\[1\]\.core_instance_current_pc[1]
*503 cores\[1\]\.core_instance_current_pc[0]
*504 fetcher_read_address\[1\][7]
*505 fetcher_read_address\[1\][6]
*506 fetcher_read_address\[1\][5]
*507 fetcher_read_address\[1\][4]
*508 fetcher_read_address\[1\][3]
*509 fetcher_read_address\[1\][2]
*510 fetcher_read_address\[1\][1]
*511 fetcher_read_address\[1\][0]
*512 cores\[1\]\.core_instance_next_pc\[0\][7]
*513 cores\[1\]\.core_instance_next_pc\[0\][6]
*514 cores\[1\]\.core_instance_next_pc\[0\][5]
*515 cores\[1\]\.core_instance_next_pc\[0\][4]
*516 cores\[1\]\.core_instance_next_pc\[0\][3]
*517 cores\[1\]\.core_instance_next_pc\[0\][2]
*518 cores\[1\]\.core_instance_next_pc\[0\][1]
*519 cores\[1\]\.core_instance_next_pc\[0\][0]
*520 cores\[1\]\.core_instance_alu_out\[0\][7]
*521 cores\[1\]\.core_instance_alu_out\[0\][6]
*522 cores\[1\]\.core_instance_alu_out\[0\][5]
*523 cores\[1\]\.core_instance_alu_out\[0\][4]
*524 cores\[1\]\.core_instance_alu_out\[0\][3]
*525 cores\[1\]\.core_instance_alu_out\[0\][2]
*526 cores\[1\]\.core_instance_alu_out\[0\][1]
*527 cores\[1\]\.core_instance_alu_out\[0\][0]
*528 lsu_read_data\[4\][7]
*529 lsu_read_data\[4\][6]
*530 lsu_read_data\[4\][5]
*531 lsu_read_data\[4\][4]
*532 lsu_read_data\[4\][3]
*533 lsu_read_data\[4\][2]
*534 lsu_read_data\[4\][1]
*535 lsu_read_data\[4\][0]
*536 cores\[1\]\.core_instance_lsu_out\[0\][7]
*537 cores\[1\]\.core_instance_lsu_out\[0\][6]
*538 cores\[1\]\.core_instance_lsu_out\[0\][5]
*539 cores\[1\]\.core_instance_lsu_out\[0\][4]
*540 cores\[1\]\.core_instance_lsu_out\[0\][3]
*541 cores\[1\]\.core_instance_lsu_out\[0\][2]
*542 cores\[1\]\.core_instance_lsu_out\[0\][1]
*543 cores\[1\]\.core_instance_lsu_out\[0\][0]
*544 cores\[1\]\.core_instance_lsu_state\[0\][1]
*545 cores\[1\]\.core_instance_lsu_state\[0\][0]
*546 cores\[1\]\.core_instance_rt\[0\][7]
*547 cores\[1\]\.core_instance_rt\[0\][6]
*548 cores\[1\]\.core_instance_rt\[0\][5]
*549 cores\[1\]\.core_instance_rt\[0\][4]
*550 cores\[1\]\.core_instance_rt\[0\][3]
*551 cores\[1\]\.core_instance_rt\[0\][2]
*552 cores\[1\]\.core_instance_rt\[0\][1]
*553 cores\[1\]\.core_instance_rt\[0\][0]
*554 cores\[1\]\.core_lsu_write_data\[0\][7]
*555 cores\[1\]\.core_lsu_write_data\[0\][6]
*556 cores\[1\]\.core_lsu_write_data\[0\][5]
*557 cores\[1\]\.core_lsu_write_data\[0\][4]
*558 cores\[1\]\.core_lsu_write_data\[0\][3]
*559 cores\[1\]\.core_lsu_write_data\[0\][2]
*560 cores\[1\]\.core_lsu_write_data\[0\][1]
*561 cores\[1\]\.core_lsu_write_data\[0\][0]
*562 cores\[1\]\.core_instance_threads\[0\]\.pc_instance_nzp[2]
*563 cores\[1\]\.core_instance_threads\[0\]\.pc_instance_nzp[1]
*564 cores\[1\]\.core_instance_threads\[0\]\.pc_instance_nzp[0]
*565 cores\[1\]\.core_instance_alu_out\[1\][7]
*566 cores\[1\]\.core_instance_alu_out\[1\][6]
*567 cores\[1\]\.core_instance_alu_out\[1\][5]
*568 cores\[1\]\.core_instance_alu_out\[1\][4]
*569 cores\[1\]\.core_instance_alu_out\[1\][3]
*570 cores\[1\]\.core_instance_alu_out\[1\][2]
*571 cores\[1\]\.core_instance_alu_out\[1\][1]
*572 cores\[1\]\.core_instance_alu_out\[1\][0]
*573 lsu_read_data\[5\][7]
*574 lsu_read_data\[5\][6]
*575 lsu_read_data\[5\][5]
*576 lsu_read_data\[5\][4]
*577 lsu_read_data\[5\][3]
*578 lsu_read_data\[5\][2]
*579 lsu_read_data\[5\][1]
*580 lsu_read_data\[5\][0]
*581 cores\[1\]\.core_instance_lsu_out\[1\][7]
*582 cores\[1\]\.core_instance_lsu_out\[1\][6]
*583 cores\[1\]\.core_instance_lsu_out\[1\][5]
*584 cores\[1\]\.core_instance_lsu_out\[1\][4]
*585 cores\[1\]\.core_instance_lsu_out\[1\][3]
*586 cores\[1\]\.core_instance_lsu_out\[1\][2]
*587 cores\[1\]\.core_instance_lsu_out\[1\][1]
*588 cores\[1\]\.core_instance_lsu_out\[1\][0]
*589 cores\[1\]\.core_instance_rt\[1\][7]
*590 cores\[1\]\.core_instance_rt\[1\][6]
*591 cores\[1\]\.core_instance_rt\[1\][5]
*592 cores\[1\]\.core_instance_rt\[1\][4]
*593 cores\[1\]\.core_instance_rt\[1\][3]
*594 cores\[1\]\.core_instance_rt\[1\][2]
*595 cores\[1\]\.core_instance_rt\[1\][1]
*596 cores\[1\]\.core_instance_rt\[1\][0]
*597 cores\[1\]\.core_lsu_write_data\[1\][7]
*598 cores\[1\]\.core_lsu_write_data\[1\][6]
*599 cores\[1\]\.core_lsu_write_data\[1\][5]
*600 cores\[1\]\.core_lsu_write_data\[1\][4]
*601 cores\[1\]\.core_lsu_write_data\[1\][3]
*602 cores\[1\]\.core_lsu_write_data\[1\][2]
*603 cores\[1\]\.core_lsu_write_data\[1\][1]
*604 cores\[1\]\.core_lsu_write_data\[1\][0]
*605 cores\[1\]\.core_instance_alu_out\[2\][7]
*606 cores\[1\]\.core_instance_alu_out\[2\][6]
*607 cores\[1\]\.core_instance_alu_out\[2\][5]
*608 cores\[1\]\.core_instance_alu_out\[2\][4]
*609 cores\[1\]\.core_instance_alu_out\[2\][3]
*610 cores\[1\]\.core_instance_alu_out\[2\][2]
*611 cores\[1\]\.core_instance_alu_out\[2\][1]
*612 cores\[1\]\.core_instance_alu_out\[2\][0]
*613 lsu_read_data\[6\][7]
*614 lsu_read_data\[6\][6]
*615 lsu_read_data\[6\][5]
*616 lsu_read_data\[6\][4]
*617 lsu_read_data\[6\][3]
*618 lsu_read_data\[6\][2]
*619 lsu_read_data\[6\][1]
*620 lsu_read_data\[6\][0]
*621 cores\[1\]\.core_instance_lsu_out\[2\][7]
*622 cores\[1\]\.core_instance_lsu_out\[2\][6]
*623 cores\[1\]\.core_instance_lsu_out\[2\][5]
*624 cores\[1\]\.core_instance_lsu_out\[2\][4]
*625 cores\[1\]\.core_instance_lsu_out\[2\][3]
*626 cores\[1\]\.core_instance_lsu_out\[2\][2]
*627 cores\[1\]\.core_instance_lsu_out\[2\][1]
*628 cores\[1\]\.core_instance_lsu_out\[2\][0]
*629 cores\[1\]\.core_instance_rt\[2\][7]
*630 cores\[1\]\.core_instance_rt\[2\][6]
*631 cores\[1\]\.core_instance_rt\[2\][5]
*632 cores\[1\]\.core_instance_rt\[2\][4]
*633 cores\[1\]\.core_instance_rt\[2\][3]
*634 cores\[1\]\.core_instance_rt\[2\][2]
*635 cores\[1\]\.core_instance_rt\[2\][1]
*636 cores\[1\]\.core_instance_rt\[2\][0]
*637 cores\[1\]\.core_lsu_write_data\[2\][7]
*638 cores\[1\]\.core_lsu_write_data\[2\][6]
*639 cores\[1\]\.core_lsu_write_data\[2\][5]
*640 cores\[1\]\.core_lsu_write_data\[2\][4]
*641 cores\[1\]\.core_lsu_write_data\[2\][3]
*642 cores\[1\]\.core_lsu_write_data\[2\][2]
*643 cores\[1\]\.core_lsu_write_data\[2\][1]
*644 cores\[1\]\.core_lsu_write_data\[2\][0]
*645 cores\[1\]\.core_instance_alu_out\[3\][7]
*646 cores\[1\]\.core_instance_alu_out\[3\][6]
*647 cores\[1\]\.core_instance_alu_out\[3\][5]
*648 cores\[1\]\.core_instance_alu_out\[3\][4]
*649 cores\[1\]\.core_instance_alu_out\[3\][3]
*650 cores\[1\]\.core_instance_alu_out\[3\][2]
*651 cores\[1\]\.core_instance_alu_out\[3\][1]
*652 cores\[1\]\.core_instance_alu_out\[3\][0]
*653 lsu_read_data\[7\][7]
*654 lsu_read_data\[7\][6]
*655 lsu_read_data\[7\][5]
*656 lsu_read_data\[7\][4]
*657 lsu_read_data\[7\][3]
*658 lsu_read_data\[7\][2]
*659 lsu_read_data\[7\][1]
*660 lsu_read_data\[7\][0]
*661 cores\[1\]\.core_instance_lsu_out\[3\][7]
*662 cores\[1\]\.core_instance_lsu_out\[3\][6]
*663 cores\[1\]\.core_instance_lsu_out\[3\][5]
*664 cores\[1\]\.core_instance_lsu_out\[3\][4]
*665 cores\[1\]\.core_instance_lsu_out\[3\][3]
*666 cores\[1\]\.core_instance_lsu_out\[3\][2]
*667 cores\[1\]\.core_instance_lsu_out\[3\][1]
*668 cores\[1\]\.core_instance_lsu_out\[3\][0]
*669 cores\[1\]\.core_instance_rt\[3\][7]
*670 cores\[1\]\.core_instance_rt\[3\][6]
*671 cores\[1\]\.core_instance_rt\[3\][5]
*672 cores\[1\]\.core_instance_rt\[3\][4]
*673 cores\[1\]\.core_instance_rt\[3\][3]
*674 cores\[1\]\.core_instance_rt\[3\][2]
*675 cores\[1\]\.core_instance_rt\[3\][1]
*676 cores\[1\]\.core_instance_rt\[3\][0]
*677 cores\[1\]\.core_lsu_write_data\[3\][7]
*678 cores\[1\]\.core_lsu_write_data\[3\][6]
*679 cores\[1\]\.core_lsu_write_data\[3\][5]
*680 cores\[1\]\.core_lsu_write_data\[3\][4]
*681 cores\[1\]\.core_lsu_write_data\[3\][3]
*682 cores\[1\]\.core_lsu_write_data\[3\][2]
*683 cores\[1\]\.core_lsu_write_data\[3\][1]
*684 cores\[1\]\.core_lsu_write_data\[3\][0]
*685 thread_count[7]
*686 thread_count[6]
*687 thread_count[5]
*688 thread_count[4]
*689 thread_count[3]
*690 thread_count[2]
*691 thread_count[1]
*692 thread_count[0]
*693 fetcher_read_ready[1]
*694 fetcher_read_ready[0]
*695 program_memory_controller_controller_state\[0\][2]
*696 program_memory_controller_controller_state\[0\][1]
*697 cores\[1\]\.core_instance_rs\[2\][7]
*698 cores\[1\]\.core_instance_rs\[2\][6]
*699 cores\[1\]\.core_instance_rs\[2\][5]
*700 cores\[1\]\.core_instance_rs\[2\][4]
*701 cores\[1\]\.core_instance_rs\[2\][3]
*702 cores\[1\]\.core_instance_rs\[2\][2]
*703 cores\[1\]\.core_instance_rs\[2\][1]
*704 cores\[1\]\.core_instance_rs\[2\][0]
*705 cores\[0\]\.core_instance_rs\[2\][7]
*706 cores\[0\]\.core_instance_rs\[2\][6]
*707 cores\[0\]\.core_instance_rs\[2\][5]
*708 cores\[0\]\.core_instance_rs\[2\][4]
*709 cores\[0\]\.core_instance_rs\[2\][3]
*710 cores\[0\]\.core_instance_rs\[2\][2]
*711 cores\[0\]\.core_instance_rs\[2\][1]
*712 cores\[0\]\.core_instance_rs\[2\][0]
*713 cores\[1\]\.core_instance_threads\[0\]\.register_instance_registers\[8\][7]
*714 cores\[1\]\.core_instance_threads\[0\]\.register_instance_registers\[8\][6]
*715 cores\[1\]\.core_instance_threads\[0\]\.register_instance_registers\[8\][5]
*716 cores\[1\]\.core_instance_threads\[0\]\.register_instance_registers\[8\][4]
*717 cores\[1\]\.core_instance_threads\[0\]\.register_instance_registers\[8\][3]
*718 cores\[1\]\.core_instance_threads\[0\]\.register_instance_registers\[8\][2]
*719 cores\[1\]\.core_instance_threads\[0\]\.register_instance_registers\[8\][1]
*720 cores\[1\]\.core_instance_threads\[0\]\.register_instance_registers\[8\][0]
*721 cores\[1\]\.core_instance_threads\[0\]\.register_instance_registers\[7\][7]
*722 cores\[1\]\.core_instance_threads\[0\]\.register_instance_registers\[7\][6]
*723 cores\[1\]\.core_instance_threads\[0\]\.register_instance_registers\[7\][5]
*724 cores\[1\]\.core_instance_threads\[0\]\.register_instance_registers\[7\][4]
*725 cores\[1\]\.core_instance_threads\[0\]\.register_instance_registers\[7\][3]
*726 cores\[1\]\.core_instance_threads\[0\]\.register_instance_registers\[7\][2]
*727 cores\[1\]\.core_instance_threads\[0\]\.register_instance_registers\[7\][1]
*728 cores\[1\]\.core_instance_threads\[0\]\.register_instance_registers\[7\][0]
*729 cores\[0\]\.core_instance_threads\[0\]\.register_instance_registers\[9\][7]
*730 cores\[0\]\.core_instance_threads\[0\]\.register_instance_registers\[9\][6]
*731 cores\[0\]\.core_instance_threads\[0\]\.register_instance_registers\[9\][5]
*732 cores\[0\]\.core_instance_threads\[0\]\.register_instance_registers\[9\][4]
*733 cores\[0\]\.core_instance_threads\[0\]\.register_instance_registers\[9\][3]
*734 cores\[0\]\.core_instance_threads\[0\]\.register_instance_registers\[9\][2]
*735 cores\[0\]\.core_instance_threads\[0\]\.register_instance_registers\[9\][1]
*736 cores\[0\]\.core_instance_threads\[0\]\.register_instance_registers\[9\][0]
*737 cores\[0\]\.core_instance_threads\[0\]\.register_instance_registers\[7\][7]
*738 cores\[0\]\.core_instance_threads\[0\]\.register_instance_registers\[7\][6]